*Heading
** Job name: Job-bukkle Model name: Model-1
** Generated by: Abaqus/CAE Learning Edition 2025
*Preprint, echo=NO, model=NO, history=NO, contact=NO
**
** PARTS
**
*Part, name=Part-1
*Node
      1,         -10.,          -5.,         200.
      2,         -10.,   1.66666663,         200.
      3,         -10.,   8.33333302,         200.
      4,         -10.,          15.,         200.
      5,         -10.,          -5.,   193.103455
      6,         -10.,   1.66666663,   193.103455
      7,         -10.,   8.33333302,   193.103455
      8,         -10.,          15.,   193.103455
      9,         -10.,          -5.,   186.206894
     10,         -10.,   1.66666663,   186.206894
     11,         -10.,   8.33333302,   186.206894
     12,         -10.,          15.,   186.206894
     13,         -10.,          -5.,   179.310349
     14,         -10.,   1.66666663,   179.310349
     15,         -10.,   8.33333302,   179.310349
     16,         -10.,          15.,   179.310349
     17,         -10.,          -5.,   172.413788
     18,         -10.,   1.66666663,   172.413788
     19,         -10.,   8.33333302,   172.413788
     20,         -10.,          15.,   172.413788
** ... 460 like lines cut
*Element, type=C3D8R
  1, 121, 122, 126, 125,   1,   2,   6,   5
  2, 122, 123, 127, 126,   2,   3,   7,   6
  3, 123, 124, 128, 127,   3,   4,   8,   7
  4, 125, 126, 130, 129,   5,   6,  10,   9
  5, 126, 127, 131, 130,   6,   7,  11,  10
  6, 127, 128, 132, 131,   7,   8,  12,  11
  7, 129, 130, 134, 133,   9,  10,  14,  13
  8, 130, 131, 135, 134,  10,  11,  15,  14
  9, 131, 132, 136, 135,  11,  12,  16,  15
 10, 133, 134, 138, 137,  13,  14,  18,  17
 11, 134, 135, 139, 138,  14,  15,  19,  18
 12, 135, 136, 140, 139,  15,  16,  20,  19
 13, 137, 138, 142, 141,  17,  18,  22,  21
 14, 138, 139, 143, 142,  18,  19,  23,  22
 15, 139, 140, 144, 143,  19,  20,  24,  23
 16, 141, 142, 146, 145,  21,  22,  26,  25
 17, 142, 143, 147, 146,  22,  23,  27,  26
 18, 143, 144, 148, 147,  23,  24,  28,  27
 19, 145, 146, 150, 149,  25,  26,  30,  29
 20, 146, 147, 151, 150,  26,  27,  31,  30
** ... 241 like lines cut
*Nset, nset=a, generate
   1,  480,    1
*Elset, elset=a, generate
   1,  261,    1
** Section: Section-1
*Solid Section, elset=a, material=Material-1
,
*End Part
**  
**
** ASSEMBLY
**
*Assembly, name=Assembly
**  
*Instance, name=Part-1-1, part=Part-1
*End Instance
**  
*Nset, nset=Set-1, instance=Part-1-1
   1,   2,   3,   4, 121, 122, 123, 124, 241, 242, 243, 244, 361, 362, 363, 364
*Elset, elset=Set-1, instance=Part-1-1
   1,   2,   3,  88,  89,  90, 175, 176, 177
*Elset, elset=_Surf-1_S5, internal, instance=Part-1-1
  85,  86,  87, 172, 173, 174, 259, 260, 261
*Surface, type=ELEMENT, name=Surf-1
_Surf-1_S5, S5
*End Assembly
** 
** MATERIALS
** 
*Material, name=Material-1
*Density
 7.8e-06,
*Elastic
210000., 0.3
** ----------------------------------------------------------------
** 
** STEP: Step-1
** 
*Step, name=Step-1, nlgeom=NO, perturbation
*Buckle
35, , 43, 30
** 
** BOUNDARY CONDITIONS
** 
** Name: BC-1 Type: Displacement/Rotation
*Boundary, op=NEW, load case=1
Set-1, 1, 1
Set-1, 2, 2
Set-1, 3, 3
Set-1, 4, 4
Set-1, 5, 5
Set-1, 6, 6
*Boundary, op=NEW, load case=2
Set-1, 1, 1
Set-1, 2, 2
Set-1, 3, 3
Set-1, 4, 4
Set-1, 5, 5
Set-1, 6, 6
** 
** LOADS
** 
** Name: Load-1   Type: Pressure
*Dsload
Surf-1, P, 400.
** 
** OUTPUT REQUESTS
** 
*Restart, write, frequency=0
** 
** FIELD OUTPUT: F-Output-3
** 
*Output, field
*Node Output
CF, RF, RM, RT, TF, U, UR, UT
VF
*Element Output, directions=YES
E, EE, EEQUT, ER, ESF1, FVE, IE, LE, NE, NFORC, NFORCSO, PE, PEEQ, PEEQMAX, PEEQT, PEMAG
PEQC, SALPHA, SE, SEE, SEP, SEPE, SF, SPE, SQEQ, TE, TEEQ, TEVOL, THE, VE, VEEQ
*Contact Output
SJD, SJDA, SJDE, SJDEA, SJDET, SJDETA, SJDR, SJDRA, SJDRT, SJDRTA, SJDT, SJDTA
** 
** FIELD OUTPUT: F-Output-2
** 
*Node Output, variable=PRESELECT
*Element Output, directions=YES
E, MISES, S
** 
** FIELD OUTPUT: F-Output-1
** 
*Output, field, variable=PRESELECT
*End Step
